Version 4
SHEET 1 880 680
WIRE 144 16 32 16
WIRE 336 16 224 16
WIRE -160 144 -240 144
WIRE 32 144 32 16
WIRE 32 144 -80 144
WIRE 80 144 32 144
WIRE 336 176 336 16
WIRE 336 176 240 176
WIRE 432 176 336 176
WIRE 80 208 -48 208
WIRE -48 320 -48 288
FLAG -240 144 0
FLAG -48 320 0
FLAG 432 176 vout
SYMBOL res -64 128 R90
WINDOW 0 0 56 VBottom 2
WINDOW 3 32 56 VTop 2
SYMATTR InstName R1
SYMATTR Value 1k
SYMBOL res 240 0 R90
WINDOW 0 0 56 VBottom 2
WINDOW 3 32 56 VTop 2
SYMATTR InstName R2
SYMATTR Value 9k
SYMBOL MY_IDEAL_opamp 144 176 R0
SYMATTR InstName X2
SYMBOL voltage -48 192 R0
WINDOW 123 0 0 Left 0
WINDOW 39 0 0 Left 0
SYMATTR InstName V1
SYMATTR Value SINE(0 0.5 1k)
TEXT -280 344 Left 2 !.tran 1m
