Version 4
SHEET 1 880 680
WIRE 240 32 208 32
WIRE 432 32 304 32
WIRE 80 80 0 80
WIRE 208 80 208 32
WIRE 208 80 160 80
WIRE 0 128 0 80
WIRE 208 128 208 80
WIRE 256 128 208 128
WIRE 432 160 432 32
WIRE 432 160 416 160
WIRE 496 160 432 160
WIRE 256 192 208 192
WIRE 208 224 208 192
WIRE 0 240 0 208
FLAG 0 240 0
FLAG 208 224 0
FLAG 496 160 Vout
SYMBOL voltage 0 112 R0
WINDOW 123 0 0 Left 0
WINDOW 39 0 0 Left 0
SYMATTR InstName V1
SYMATTR Value PULSE(-1 1 1p 1p 1p 0.5m 1m)
SYMBOL res 176 64 R90
WINDOW 0 0 56 VBottom 2
WINDOW 3 32 56 VTop 2
SYMATTR InstName R1
SYMATTR Value 10k
SYMBOL cap 304 16 R90
WINDOW 0 0 32 VBottom 2
WINDOW 3 32 32 VTop 2
SYMATTR InstName C1
SYMATTR Value 160n
SYMBOL MY_IDEAL_opamp 320 160 R0
SYMATTR InstName X1
TEXT -34 264 Left 2 !.tran 10ms
