Version 4
SHEET 1 932 680
WIRE 176 32 128 32
WIRE 368 32 256 32
WIRE -64 48 -224 48
WIRE 64 48 16 48
WIRE -224 160 -224 48
WIRE -64 160 -128 160
WIRE 64 160 64 48
WIRE 64 160 16 160
WIRE 128 160 128 32
WIRE 128 160 64 160
WIRE 176 160 128 160
WIRE 368 192 368 32
WIRE 368 192 336 192
WIRE 480 192 368 192
WIRE -128 208 -128 160
WIRE 176 224 128 224
WIRE 128 256 128 224
WIRE -224 304 -224 240
WIRE -128 320 -128 288
WIRE 128 368 128 336
FLAG 480 192 vout
FLAG -224 304 0
FLAG -128 320 0
FLAG 128 368 0
SYMBOL MY_IDEAL_opamp 240 192 R0
SYMATTR InstName X1
SYMBOL voltage -224 144 R0
WINDOW 123 0 0 Left 0
WINDOW 39 0 0 Left 0
SYMATTR InstName V1
SYMATTR Value SINE(0 3 1k)
SYMBOL voltage -128 192 R0
WINDOW 123 0 0 Left 0
WINDOW 39 0 0 Left 0
SYMATTR InstName V2
SYMATTR Value 4
SYMBOL res 32 32 R90
WINDOW 0 0 56 VBottom 2
WINDOW 3 32 56 VTop 2
SYMATTR InstName R1
SYMATTR Value 1k
SYMBOL res 32 144 R90
WINDOW 0 0 56 VBottom 2
WINDOW 3 32 56 VTop 2
SYMATTR InstName R2
SYMATTR Value 1k
SYMBOL res 272 16 R90
WINDOW 0 0 56 VBottom 2
WINDOW 3 32 56 VTop 2
SYMATTR InstName R3
SYMATTR Value 1k
SYMBOL res 144 352 R180
WINDOW 0 36 76 Left 2
WINDOW 3 36 40 Left 2
SYMATTR InstName R4
SYMATTR Value 1k
TEXT -256 472 Left 2 !.tran 1ms
