Version 4
SHEET 1 880 680
WIRE 144 64 96 64
WIRE 144 80 96 80
WIRE 144 96 32 96
WIRE 144 112 48 112
WIRE 144 128 128 128
WIRE 48 144 48 112
WIRE 48 144 -16 144
WIRE 96 192 96 80
WIRE 96 192 16 192
WIRE 128 240 128 128
WIRE 128 240 64 240
FLAG 96 64 inp1
IOPIN 96 64 In
FLAG 32 96 inp2
IOPIN 32 96 In
FLAG -16 144 inp3
IOPIN -16 144 In
FLAG 16 192 inp4
IOPIN 16 192 In
FLAG 64 240 inp5
IOPIN 64 240 In
FLAG 208 80 out1
IOPIN 208 80 Out
FLAG 224 112 out2
IOPIN 224 112 Out
FLAG -64 -48 0
FLAG 32 -48 0
FLAG 144 -48 0
FLAG 272 -48 0
FLAG 384 -48 0
FLAG -64 -128 inp1
IOPIN -64 -128 Out
FLAG 32 -128 inp2
IOPIN 32 -128 Out
FLAG 144 -128 inp3
IOPIN 144 -128 Out
FLAG 272 -128 inp4
IOPIN 272 -128 Out
FLAG 384 -128 inp5
IOPIN 384 -128 Out
SYMBOL Digital\\xor 192 32 R0
SYMATTR InstName A1
SYMBOL voltage 32 -144 R0
WINDOW 3 -520 4 Left 2
WINDOW 123 0 0 Left 0
WINDOW 39 0 0 Left 0
SYMATTR InstName V2
SYMATTR Value PULSE(0 5 20m 1n 1n 20m 40m)
SYMBOL voltage 144 -144 R0
WINDOW 3 -632 36 Left 2
WINDOW 123 0 0 Left 0
WINDOW 39 0 0 Left 0
SYMATTR InstName V3
SYMATTR Value PULSE(0 5 30m 1n 1n 30m 60m)
SYMBOL voltage 272 -144 R0
WINDOW 3 -759 66 Left 2
WINDOW 123 0 0 Left 0
WINDOW 39 0 0 Left 0
SYMATTR InstName V4
SYMATTR Value PULSE(0 5 40m 1n 1n 40m 80m)
SYMBOL voltage 384 -144 R0
WINDOW 3 -873 91 Left 2
WINDOW 123 0 0 Left 0
WINDOW 39 0 0 Left 0
SYMATTR InstName V5
SYMATTR Value PULSE(0 5 50m 1n 1n 50m 100m)
SYMBOL voltage -64 -144 R0
WINDOW 3 -425 -29 Left 2
WINDOW 123 0 0 Left 0
WINDOW 39 0 0 Left 0
SYMATTR InstName V1
SYMATTR Value PULSE(0 5 10m 1n 1n 10m 20m)
TEXT -280 112 Left 2 !.tran 100m
